New England/PSSE Cases/Medium/Summer90Tight.RAW
 0,    100.00, 33, 0, 0, 60.00       / August 25, 2017 10:11:31; Simulator Version 19; BuildDate 2016_7_14


    1,'1           ', 345.0000,2,   1,   1,   1,1.02000,  -0.3155, 1.06000, 1.00000, 1.06000, 1.00000
    2,'2           ', 345.0000,1,   1,   1,   1,1.00425, -23.5323, 1.04000, 0.95000, 1.04000, 0.95000
    3,'3           ', 138.0000,2,   1,   1,   1,1.02000,  -6.4667, 1.06000, 1.00000, 1.06000, 1.00000
    4,'4           ', 138.0000,1,   1,   1,   1,0.95661, -19.2648, 1.04000, 0.95000, 1.04000, 0.95000
    5,'5           ', 230.0000,1,   1,   1,   1,0.97608, -13.8728, 1.04000, 0.95000, 1.04000, 0.95000
    6,'6           ', 138.0000,1,   1,   1,   1,0.99411,  -8.3226, 1.04000, 0.95000, 1.04000, 0.95000
    7,'7           ', 138.0000,2,   1,   1,   1,1.02000,  -7.2621, 1.06000, 1.00000, 1.06000, 1.00000
    8,'8           ', 230.0000,2,   1,   1,   1,1.02000,  -8.6149, 1.06000, 1.00000, 1.06000, 1.00000
    9,'9           ', 345.0000,1,   1,   1,   1,1.02464,  -9.8982, 1.04000, 0.95000, 1.04000, 0.95000
   10,'10          ', 138.0000,3,   1,   1,   1,1.02000,   0.0000, 1.06000, 1.00000, 1.06000, 1.00000
   11,'11          ', 138.0000,1,   1,   1,   1,1.01375,  -1.6034, 1.04000, 0.95000, 1.04000, 0.95000
   12,'12          ', 138.0000,1,   1,   1,   1,1.01202,  -2.7053, 1.04000, 0.95000, 1.04000, 0.95000
   13,'13          ', 345.0000,1,   1,   1,   1,1.01072,  -5.5099, 1.04000, 0.95000, 1.04000, 0.95000
   14,'14          ', 230.0000,1,   1,   1,   1,0.99970, -14.8630, 1.04000, 0.95000, 1.04000, 0.95000
   15,'15          ', 230.0000,1,   1,   1,   1,0.98098, -18.0337, 1.04000, 0.95000, 1.04000, 0.95000
   16,'16          ', 138.0000,1,   1,   1,   1,0.98486, -26.2856, 1.04000, 0.95000, 1.04000, 0.95000
   17,'17          ', 138.0000,1,   1,   1,   1,0.94850, -28.8863, 1.04000, 0.95000, 1.04000, 0.95000
   18,'18          ', 138.0000,1,   1,   1,   1,0.93508, -23.4634, 1.04000, 0.95000, 1.04000, 0.95000
   19,'19          ', 138.0000,1,   1,   1,   1,0.97004, -35.0446, 1.04000, 0.95000, 1.04000, 0.95000
   20,'20          ',  69.0000,1,   1,   1,   1,0.99104, -33.6566, 1.04000, 0.95000, 1.04000, 0.95000
   21,'21          ', 138.0000,1,   1,   1,   1,0.94947, -34.8103, 1.04000, 0.95000, 1.04000, 0.95000
   22,'22          ', 230.0000,1,   1,   1,   1,0.97235, -21.4188, 1.04000, 0.95000, 1.04000, 0.95000
   23,'23          ', 230.0000,1,   1,   1,   1,0.98721, -17.5808, 1.04000, 0.95000, 1.04000, 0.95000
   24,'24          ', 230.0000,2,   1,   1,   1,1.01131, -19.7222, 1.06000, 1.00000, 1.06000, 1.00000
   25,'25          ', 230.0000,1,   1,   1,   1,0.98842, -30.9259, 1.04000, 0.95000, 1.04000, 0.95000
   26,'26          ', 345.0000,2,   1,   1,   1,1.02000, -34.6054, 1.06000, 1.00000, 1.06000, 1.00000
   27,'27          ', 230.0000,1,   1,   1,   1,0.96068, -38.8884, 1.04000, 0.95000, 1.04000, 0.95000
   28,'28          ', 138.0000,2,   1,   1,   1,1.02000, -19.1706, 1.06000, 1.00000, 1.06000, 1.00000
   29,'29          ', 138.0000,1,   1,   1,   1,1.00562, -14.1960, 1.04000, 0.95000, 1.04000, 0.95000
   30,'30          ',  14.0000,2,   1,   1,   1,1.02000, -21.9173, 1.06000, 1.00000, 1.06000, 1.00000
   31,'31          ',  14.0000,2,   1,   1,   1,1.02000,   1.0460, 1.06000, 1.00000, 1.06000, 1.00000
   32,'32          ',  14.0000,2,   1,   1,   1,1.02000,   7.5445, 1.06000, 1.00000, 1.06000, 1.00000
   33,'33          ',  14.0000,2,   1,   1,   1,1.01767, -31.2373, 1.06000, 1.00000, 1.06000, 1.00000
   34,'34          ',  14.0000,2,   1,   1,   1,1.02000, -31.0921, 1.06000, 1.00000, 1.06000, 1.00000
   35,'35          ',  14.0000,2,   1,   1,   1,1.02000, -12.7682, 1.06000, 1.00000, 1.06000, 1.00000
   36,'36          ',  14.0000,2,   1,   1,   1,1.02000,  -8.5035, 1.06000, 1.00000, 1.06000, 1.00000
   37,'37          ',  14.0000,2,   1,   1,   1,1.02000, -29.2765, 1.06000, 1.00000, 1.06000, 1.00000
   38,'38          ',  14.0000,2,   1,   1,   1,1.02000,  -8.5584, 1.06000, 1.00000, 1.06000, 1.00000
   39,'39          ', 345.0000,1,   1,   1,   1,1.00349, -31.8647, 1.04000, 0.95000, 1.04000, 0.95000
   40,'40          ', 345.0000,1,   1,   1,   1,1.00432, -36.3247, 1.04000, 0.95000, 1.04000, 0.95000
   41,'41          ', 345.0000,1,   1,   1,   1,0.96689, -37.5062, 1.04000, 0.95000, 1.04000, 0.95000
   42,'42          ', 345.0000,1,   1,   1,   1,1.01246, -34.7420, 1.04000, 0.95000, 1.04000, 0.95000
   43,'43          ', 345.0000,1,   1,   1,   1,1.01216, -35.0546, 1.04000, 0.95000, 1.04000, 0.95000
   44,'44          ', 230.0000,1,   1,   1,   1,1.00473,  -9.0050, 1.04000, 0.95000, 1.04000, 0.95000
   45,'45          ', 345.0000,1,   1,   1,   1,1.01053,  -6.9755, 1.04000, 0.95000, 1.04000, 0.95000
   46,'46          ', 138.0000,1,   1,   1,   1,0.95226, -18.8125, 1.04000, 0.95000, 1.04000, 0.95000
   47,'47          ', 138.0000,1,   1,   1,   1,0.93474, -26.2950, 1.04000, 0.95000, 1.04000, 0.95000
   48,'48          ', 345.0000,1,   1,   1,   1,0.94651, -19.9022, 1.04000, 0.95000, 1.04000, 0.95000
   49,'49          ', 138.0000,2,   1,   1,   1,1.02000,  -6.7308, 1.06000, 1.00000, 1.06000, 1.00000
   50,'50          ', 138.0000,1,   1,   1,   1,0.96347, -14.7297, 1.04000, 0.95000, 1.04000, 0.95000
   51,'51          ', 138.0000,1,   1,   1,   1,0.98213, -19.2223, 1.04000, 0.95000, 1.04000, 0.95000
   52,'52          ', 345.0000,2,   1,   1,   1,1.02000,  -5.1215, 1.06000, 1.00000, 1.06000, 1.00000
   53,'53          ', 138.0000,1,   1,   1,   1,0.96386, -19.2661, 1.04000, 0.95000, 1.04000, 0.95000
   54,'54          ', 230.0000,2,   1,   1,   1,1.02000,  -7.3931, 1.06000, 1.00000, 1.06000, 1.00000
   55,'55          ', 230.0000,1,   1,   1,   1,0.99698, -10.9049, 1.04000, 0.95000, 1.04000, 0.95000
   56,'56          ', 345.0000,2,   1,   1,   1,1.01677, -13.5022, 1.06000, 1.00000, 1.06000, 1.00000
   57,'57          ', 138.0000,1,   1,   1,   1,0.94119, -23.5881, 1.04000, 0.95000, 1.04000, 0.95000
   58,'58          ', 345.0000,1,   1,   1,   1,0.98401, -15.3135, 1.04000, 0.95000, 1.04000, 0.95000
   59,'59          ', 345.0000,1,   1,   1,   1,0.99583, -17.9901, 1.04000, 0.95000, 1.04000, 0.95000
   60,'60          ', 138.0000,1,   1,   1,   1,0.93878, -24.2249, 1.04000, 0.95000, 1.04000, 0.95000
   61,'61          ', 230.0000,1,   1,   1,   1,0.98411, -20.8344, 1.04000, 0.95000, 1.04000, 0.95000
   62,'62          ', 345.0000,1,   1,   1,   1,0.97256, -16.6900, 1.04000, 0.95000, 1.04000, 0.95000
   63,'63          ', 138.0000,1,   1,   1,   1,0.93887, -24.5484, 1.04000, 0.95000, 1.04000, 0.95000
   64,'64          ', 138.0000,1,   1,   1,   1,0.94866, -20.7408, 1.04000, 0.95000, 1.04000, 0.95000
   65,'65          ', 138.0000,1,   1,   1,   1,0.98289, -11.8371, 1.04000, 0.95000, 1.04000, 0.95000
   66,'66          ', 345.0000,1,   1,   1,   1,0.99059, -15.2806, 1.04000, 0.95000, 1.04000, 0.95000
   67,'67          ', 138.0000,1,   1,   1,   1,0.95360, -19.5820, 1.04000, 0.95000, 1.04000, 0.95000
   68,'68          ', 138.0000,1,   1,   1,   1,0.97084, -17.2305, 1.04000, 0.95000, 1.04000, 0.95000
   69,'69          ', 345.0000,2,   1,   1,   1,1.02000,  -5.3712, 1.06000, 1.00000, 1.06000, 1.00000
   70,'70          ', 138.0000,1,   1,   1,   1,0.98730,  -6.4908, 1.04000, 0.95000, 1.04000, 0.95000
   71,'71          ', 345.0000,1,   1,   1,   1,1.00132, -14.6453, 1.04000, 0.95000, 1.04000, 0.95000
   72,'72          ', 138.0000,2,   1,   1,   1,0.98872, -19.0601, 1.06000, 1.00000, 1.06000, 1.00000
   73,'73          ', 138.0000,1,   1,   1,   1,0.98391, -19.3685, 1.04000, 0.95000, 1.04000, 0.95000
   74,'74          ', 345.0000,1,   1,   1,   1,0.97289, -15.3116, 1.04000, 0.95000, 1.04000, 0.95000
   75,'75          ', 138.0000,1,   1,   1,   1,0.94860, -20.3162, 1.04000, 0.95000, 1.04000, 0.95000
   76,'76          ', 345.0000,2,   1,   1,   1,1.01830, -13.3743, 1.06000, 1.00000, 1.06000, 1.00000
   77,'77          ', 138.0000,1,   1,   1,   1,0.98734, -26.4652, 1.04000, 0.95000, 1.04000, 0.95000
   78,'78          ', 345.0000,2,   1,   1,   1,1.02000, -28.4192, 1.06000, 1.00000, 1.06000, 1.00000
   79,'79          ', 345.0000,1,   1,   1,   1,1.02567, -30.9927, 1.04000, 0.95000, 1.04000, 0.95000
   80,'80          ', 345.0000,2,   1,   1,   1,1.02000, -16.1958, 1.06000, 1.00000, 1.06000, 1.00000
   81,'81          ', 345.0000,1,   1,   1,   1,1.01585, -19.9380, 1.04000, 0.95000, 1.04000, 0.95000
   82,'82          ', 345.0000,2,   1,   1,   1,1.02000, -20.2481, 1.06000, 1.00000, 1.06000, 1.00000
   83,'83          ', 345.0000,1,   1,   1,   1,1.01743, -24.0566, 1.04000, 0.95000, 1.04000, 0.95000
   84,'84          ', 138.0000,2,   1,   1,   1,1.02000, -23.3454, 1.06000, 1.00000, 1.06000, 1.00000
   85,'85          ', 230.0000,1,   1,   1,   1,0.96765, -30.0627, 1.04000, 0.95000, 1.04000, 0.95000
   86,'86          ', 138.0000,1,   1,   1,   1,0.96695, -28.1107, 1.04000, 0.95000, 1.04000, 0.95000
   87,'87          ', 345.0000,1,   1,   1,   1,1.03034, -27.4518, 1.04000, 0.95000, 1.04000, 0.95000
   88,'88          ', 138.0000,1,   1,   1,   1,1.00809, -21.5098, 1.04000, 0.95000, 1.04000, 0.95000
   89,'89          ', 138.0000,1,   1,   1,   1,0.96184, -32.4495, 1.04000, 0.95000, 1.04000, 0.95000
   90,'90          ', 230.0000,1,   1,   1,   1,0.97160, -18.8005, 1.04000, 0.95000, 1.04000, 0.95000
   91,'91          ', 230.0000,1,   1,   1,   1,0.94378, -21.7984, 1.04000, 0.95000, 1.04000, 0.95000
   92,'92          ', 345.0000,1,   1,   1,   1,0.94967, -27.5150, 1.04000, 0.95000, 1.04000, 0.95000
   93,'93          ', 345.0000,1,   1,   1,   1,0.95429, -27.9379, 1.04000, 0.95000, 1.04000, 0.95000
   94,'94          ', 138.0000,1,   1,   1,   1,0.97460, -30.9678, 1.04000, 0.95000, 1.04000, 0.95000
   95,'95          ', 138.0000,1,   1,   1,   1,0.94621, -32.5983, 1.04000, 0.95000, 1.04000, 0.95000
   96,'96          ', 138.0000,1,   1,   1,   1,0.94649, -32.5601, 1.04000, 0.95000, 1.04000, 0.95000
   97,'97          ', 345.0000,1,   1,   1,   1,0.96537, -27.3083, 1.04000, 0.95000, 1.04000, 0.95000
   98,'98          ', 345.0000,1,   1,   1,   1,0.99259, -25.0968, 1.04000, 0.95000, 1.04000, 0.95000
   99,'99          ', 345.0000,1,   1,   1,   1,0.95703, -31.3586, 1.04000, 0.95000, 1.04000, 0.95000
  100,'100         ', 138.0000,1,   1,   1,   1,0.95601, -25.3739, 1.04000, 0.95000, 1.04000, 0.95000
  101,'101         ', 345.0000,1,   1,   1,   1,0.94956, -28.5832, 1.04000, 0.95000, 1.04000, 0.95000
  102,'102         ', 138.0000,1,   1,   1,   1,0.95470, -33.9439, 1.04000, 0.95000, 1.04000, 0.95000
  103,'103         ', 138.0000,2,   1,   1,   1,1.02000, -24.7168, 1.06000, 1.00000, 1.06000, 1.00000
  104,'104         ', 138.0000,1,   1,   1,   1,0.93410, -38.2256, 1.04000, 0.95000, 1.04000, 0.95000
  105,'105         ', 138.0000,1,   1,   1,   1,0.95310, -36.7453, 1.04000, 0.95000, 1.04000, 0.95000
  106,'106         ', 138.0000,1,   1,   1,   1,0.94078, -38.5743, 1.04000, 0.95000, 1.04000, 0.95000
  107,'107         ', 138.0000,1,   1,   1,   1,0.94294, -37.9920, 1.04000, 0.95000, 1.04000, 0.95000
  108,'108         ', 230.0000,1,   1,   1,   1,0.93729, -37.9104, 1.04000, 0.95000, 1.04000, 0.95000
  109,'109         ', 138.0000,1,   1,   1,   1,0.94649, -39.4247, 1.04000, 0.95000, 1.04000, 0.95000
  110,'110         ', 138.0000,1,   1,   1,   1,0.95630, -36.2904, 1.04000, 0.95000, 1.04000, 0.95000
  111,'111         ', 345.0000,1,   1,   1,   1,0.95839, -34.0745, 1.04000, 0.95000, 1.04000, 0.95000
  112,'112         ', 138.0000,1,   1,   1,   1,0.93972, -41.0582, 1.04000, 0.95000, 1.04000, 0.95000
  113,'113         ', 138.0000,1,   1,   1,   1,0.94164, -43.2085, 1.04000, 0.95000, 1.04000, 0.95000
  114,'114         ', 138.0000,1,   1,   1,   1,0.94575, -35.1880, 1.04000, 0.95000, 1.04000, 0.95000
  115,'115         ', 345.0000,1,   1,   1,   1,0.95508, -26.6901, 1.04000, 0.95000, 1.04000, 0.95000
  116,'116         ', 230.0000,1,   1,   1,   1,0.98812, -35.2896, 1.04000, 0.95000, 1.04000, 0.95000
  117,'117         ', 138.0000,1,   1,   1,   1,0.96675, -34.4895, 1.04000, 0.95000, 1.04000, 0.95000
  118,'118         ', 138.0000,1,   1,   1,   1,0.95418, -37.3561, 1.04000, 0.95000, 1.04000, 0.95000
  119,'119         ', 138.0000,1,   1,   1,   1,0.94601, -37.9713, 1.04000, 0.95000, 1.04000, 0.95000
  120,'120         ', 230.0000,2,   1,   1,   1,1.00057, -35.6523, 1.06000, 1.00000, 1.06000, 1.00000
  121,'121         ', 230.0000,1,   1,   1,   1,0.99236, -36.4448, 1.04000, 0.95000, 1.04000, 0.95000
  122,'122         ', 138.0000,1,   1,   1,   1,0.94310, -38.2367, 1.04000, 0.95000, 1.04000, 0.95000
  123,'123         ', 230.0000,1,   1,   1,   1,0.99610, -33.7347, 1.04000, 0.95000, 1.04000, 0.95000
  124,'124         ', 230.0000,1,   1,   1,   1,0.93615, -38.3339, 1.04000, 0.95000, 1.04000, 0.95000
  125,'125         ', 138.0000,1,   1,   1,   1,0.94210, -36.7593, 1.04000, 0.95000, 1.04000, 0.95000
  126,'126         ', 230.0000,1,   1,   1,   1,0.95131, -38.6790, 1.04000, 0.95000, 1.04000, 0.95000
  127,'127         ', 230.0000,1,   1,   1,   1,0.94594, -38.2817, 1.04000, 0.95000, 1.04000, 0.95000
  128,'128         ', 138.0000,2,   1,   1,   1,1.02000, -23.4818, 1.06000, 1.00000, 1.06000, 1.00000
  129,'129         ', 138.0000,1,   1,   1,   1,0.93735, -37.4862, 1.04000, 0.95000, 1.04000, 0.95000
  130,'130         ', 138.0000,2,   1,   1,   1,1.00845, -27.9713, 1.06000, 1.00000, 1.06000, 1.00000
  131,'131         ', 138.0000,1,   1,   1,   1,0.93925, -40.0133, 1.04000, 0.95000, 1.04000, 0.95000
  132,'132         ', 230.0000,1,   1,   1,   1,0.94842, -33.0702, 1.04000, 0.95000, 1.04000, 0.95000
  133,'133         ', 230.0000,1,   1,   1,   1,0.95248, -33.6886, 1.04000, 0.95000, 1.04000, 0.95000
  134,'134         ', 230.0000,1,   1,   1,   1,0.93913, -33.8995, 1.04000, 0.95000, 1.04000, 0.95000
  135,'135         ', 345.0000,1,   1,   1,   1,0.97648, -29.3882, 1.04000, 0.95000, 1.04000, 0.95000
  136,'136         ', 138.0000,1,   1,   1,   1,0.93935, -37.6229, 1.04000, 0.95000, 1.04000, 0.95000
  137,'137         ', 345.0000,1,   1,   1,   1,0.98929, -27.6438, 1.04000, 0.95000, 1.04000, 0.95000
  138,'138         ', 345.0000,1,   1,   1,   1,0.95503, -32.6904, 1.04000, 0.95000, 1.04000, 0.95000
  139,'139         ', 345.0000,1,   1,   1,   1,0.99010, -25.5370, 1.04000, 0.95000, 1.04000, 0.95000
  140,'140         ', 138.0000,1,   1,   1,   1,0.97493, -22.9091, 1.04000, 0.95000, 1.04000, 0.95000
  141,'141         ', 345.0000,2,   1,   1,   1,1.02000, -19.0208, 1.06000, 1.00000, 1.06000, 1.00000
  142,'142         ', 230.0000,1,   1,   1,   1,0.93707, -37.0841, 1.04000, 0.95000, 1.04000, 0.95000
  143,'143         ', 230.0000,2,   1,   1,   1,0.99219, -21.6587, 1.06000, 1.00000, 1.06000, 1.00000
  144,'144         ', 230.0000,1,   1,   1,   1,0.97626, -23.8305, 1.04000, 0.95000, 1.04000, 0.95000
  145,'145         ', 138.0000,1,   1,   1,   1,0.96318, -29.0159, 1.04000, 0.95000, 1.04000, 0.95000
  146,'146         ', 345.0000,2,   1,   1,   1,0.99802, -26.4338, 1.06000, 1.00000, 1.06000, 1.00000
  147,'147         ', 138.0000,1,   1,   1,   1,0.94622, -38.8676, 1.04000, 0.95000, 1.04000, 0.95000
  148,'148         ', 345.0000,1,   1,   1,   1,0.95523, -27.4955, 1.04000, 0.95000, 1.04000, 0.95000
  149,'149         ', 138.0000,2,   1,   1,   1,1.01739, -26.7646, 1.06000, 1.00000, 1.06000, 1.00000
  150,'150         ', 345.0000,1,   1,   1,   1,0.93485, -22.3024, 1.04000, 0.95000, 1.04000, 0.95000
  151,'151         ', 345.0000,1,   1,   1,   1,0.99206, -27.3005, 1.04000, 0.95000, 1.04000, 0.95000
  152,'152         ', 138.0000,1,   1,   1,   1,0.93979, -41.7101, 1.04000, 0.95000, 1.04000, 0.95000
  153,'153         ', 345.0000,1,   1,   1,   1,0.97071, -30.1729, 1.04000, 0.95000, 1.04000, 0.95000
  154,'154         ', 230.0000,1,   1,   1,   1,0.95327, -36.4838, 1.04000, 0.95000, 1.04000, 0.95000
  155,'155         ', 138.0000,1,   1,   1,   1,0.93809, -38.3240, 1.04000, 0.95000, 1.04000, 0.95000
  156,'156         ', 345.0000,1,   1,   1,   1,0.99866, -28.6349, 1.04000, 0.95000, 1.04000, 0.95000
  157,'157         ', 138.0000,2,   1,   1,   1,1.02000, -29.7192, 1.06000, 1.00000, 1.06000, 1.00000
  158,'158         ', 138.0000,1,   1,   1,   1,0.97126, -31.9211, 1.04000, 0.95000, 1.04000, 0.95000
  159,'159         ', 345.0000,1,   1,   1,   1,0.98209, -34.7929, 1.04000, 0.95000, 1.04000, 0.95000
  160,'160         ', 230.0000,1,   1,   1,   1,0.93493, -40.9179, 1.04000, 0.95000, 1.04000, 0.95000
  161,'161         ', 138.0000,1,   1,   1,   1,0.96736, -31.9860, 1.04000, 0.95000, 1.04000, 0.95000
  162,'162         ', 345.0000,2,   1,   1,   1,1.02689, -26.1295, 1.06000, 1.00000, 1.06000, 1.00000
  163,'163         ', 230.0000,1,   1,   1,   1,0.98995, -32.6418, 1.04000, 0.95000, 1.04000, 0.95000
  164,'164         ', 138.0000,1,   1,   1,   1,0.95669, -33.4776, 1.04000, 0.95000, 1.04000, 0.95000
  165,'165         ', 230.0000,2,   1,   1,   1,1.04039, -24.2846, 1.06000, 1.00000, 1.06000, 1.00000
  166,'166         ', 138.0000,2,   1,   1,   1,1.02096, -25.3611, 1.06000, 1.00000, 1.06000, 1.00000
  167,'167         ', 345.0000,1,   1,   1,   1,1.01753, -30.9123, 1.04000, 0.95000, 1.04000, 0.95000
  168,'168         ', 230.0000,1,   1,   1,   1,0.95730, -33.0215, 1.04000, 0.95000, 1.04000, 0.95000
  169,'169         ', 138.0000,1,   1,   1,   1,0.97522, -31.8520, 1.04000, 0.95000, 1.04000, 0.95000
  170,'170         ', 138.0000,1,   1,   1,   1,0.94124, -24.9033, 1.04000, 0.95000, 1.04000, 0.95000
  171,'171         ', 138.0000,1,   1,   1,   1,0.93873, -25.7908, 1.04000, 0.95000, 1.04000, 0.95000
  172,'172         ', 138.0000,1,   1,   1,   1,0.95298, -14.9911, 1.04000, 0.95000, 1.04000, 0.95000
  173,'173         ', 138.0000,1,   1,   1,   1,0.94478, -14.0199, 1.04000, 0.95000, 1.04000, 0.95000
  174,'174         ', 345.0000,1,   1,   1,   1,0.99074, -18.5253, 1.04000, 0.95000, 1.04000, 0.95000
  175,'175         ', 138.0000,2,   1,   1,   1,1.02000, -16.5153, 1.06000, 1.00000, 1.06000, 1.00000
  176,'176         ', 345.0000,2,   1,   1,   1,1.01684, -25.6852, 1.06000, 1.00000, 1.06000, 1.00000
  177,'177         ', 230.0000,1,   1,   1,   1,0.99150, -21.1195, 1.04000, 0.95000, 1.04000, 0.95000
  178,'178         ', 138.0000,1,   1,   1,   1,0.95779, -26.3078, 1.04000, 0.95000, 1.04000, 0.95000
  179,'179         ', 138.0000,1,   1,   1,   1,0.95626, -26.4204, 1.04000, 0.95000, 1.04000, 0.95000
  180,'180         ', 345.0000,1,   1,   1,   1,0.99045, -18.6136, 1.04000, 0.95000, 1.04000, 0.95000
  181,'181         ', 345.0000,1,   1,   1,   1,1.01709, -13.0879, 1.04000, 0.95000, 1.04000, 0.95000
  182,'182         ', 345.0000,1,   1,   1,   1,0.97443, -15.3315, 1.04000, 0.95000, 1.04000, 0.95000
  183,'183         ', 345.0000,1,   1,   1,   1,0.99286, -10.6948, 1.04000, 0.95000, 1.04000, 0.95000
  184,'184         ', 230.0000,1,   1,   1,   1,0.99196, -11.1432, 1.04000, 0.95000, 1.04000, 0.95000
  185,'185         ', 345.0000,1,   1,   1,   1,0.99925, -12.2392, 1.04000, 0.95000, 1.04000, 0.95000
  186,'186         ', 345.0000,1,   1,   1,   1,0.99618, -11.6463, 1.04000, 0.95000, 1.04000, 0.95000
  187,'187         ', 345.0000,1,   1,   1,   1,1.01451,  -9.8157, 1.04000, 0.95000, 1.04000, 0.95000
  188,'188         ', 345.0000,1,   1,   1,   1,1.01215,  -4.8167, 1.04000, 0.95000, 1.04000, 0.95000
  189,'189         ', 345.0000,1,   1,   1,   1,1.01189,  -5.6889, 1.04000, 0.95000, 1.04000, 0.95000
  190,'190         ', 345.0000,1,   1,   1,   1,1.00365, -12.3661, 1.04000, 0.95000, 1.04000, 0.95000
  191,'191         ', 345.0000,1,   1,   1,   1,1.00311, -16.9513, 1.04000, 0.95000, 1.04000, 0.95000
  192,'192         ', 230.0000,1,   1,   1,   1,0.98267, -24.0701, 1.04000, 0.95000, 1.04000, 0.95000
  193,'193         ', 345.0000,1,   1,   1,   1,0.99024, -22.5932, 1.04000, 0.95000, 1.04000, 0.95000
  194,'194         ', 345.0000,1,   1,   1,   1,0.98377, -24.9962, 1.04000, 0.95000, 1.04000, 0.95000
  195,'195         ', 230.0000,1,   1,   1,   1,0.95159, -35.8060, 1.04000, 0.95000, 1.04000, 0.95000
  196,'196         ', 345.0000,1,   1,   1,   1,0.95794, -33.3466, 1.04000, 0.95000, 1.04000, 0.95000
  197,'197         ', 230.0000,1,   1,   1,   1,0.94912, -33.0620, 1.04000, 0.95000, 1.04000, 0.95000
  198,'198         ', 345.0000,1,   1,   1,   1,0.95662, -32.0189, 1.04000, 0.95000, 1.04000, 0.95000
  199,'199         ', 345.0000,1,   1,   1,   1,0.96242, -25.6436, 1.04000, 0.95000, 1.04000, 0.95000
  200,'200         ', 345.0000,1,   1,   1,   1,0.99127, -21.8103, 1.04000, 0.95000, 1.04000, 0.95000
...
0 / END OF BUS DATA, BEGIN LOAD DATA
    1,'1 ',1,   1,   1,     0.000,     0.000,     0.000,     0.000,     0.000,     0.000,   1,1
    2,'1 ',1,   1,   1,   125.804,    41.258,     0.000,     0.000,     0.000,     0.000,   1,1
    3,'1 ',1,   1,   1,     0.000,     0.000,     0.000,     0.000,     0.000,     0.000,   1,1
    4,'1 ',1,   1,   1,   116.473,    32.983,     0.000,     0.000,     0.000,     0.000,   1,1
    5,'1 ',1,   1,   1,   132.843,    47.256,     0.000,     0.000,     0.000,     0.000,   1,1
    6,'1 ',1,   1,   1,   120.024,    38.737,     0.000,     0.000,     0.000,     0.000,   1,1
    7,'1 ',1,   1,   1,   200.464,    69.723,     0.000,     0.000,     0.000,     0.000,   1,1
    8,'1 ',1,   1,   1,   165.685,    48.173,     0.000,     0.000,     0.000,     0.000,   1,1
    9,'1 ',1,   1,   1,     0.000,     0.000,     0.000,     0.000,     0.000,     0.000,   1,1
   10,'1 ',1,   1,   1,   123.489,    40.529,     0.000,     0.000,     0.000,     0.000,   1,1
   11,'1 ',1,   1,   1,     0.000,     0.000,     0.000,     0.000,     0.000,     0.000,   1,1
   12,'1 ',1,   1,   1,     3.686,     1.361,     0.000,     0.000,     0.000,     0.000,   1,1
   13,'1 ',1,   1,   1,     0.000,     0.000,     0.000,     0.000,     0.000,     0.000,   1,1
   14,'1 ',1,   1,   1,   161.433,    54.601,     0.000,     0.000,     0.000,     0.000,   1,1
   15,'1 ',1,   1,   1,   196.230,    57.026,     0.000,     0.000,     0.000,     0.000,   1,1
   16,'1 ',1,   1,   1,   226.811,    62.259,     0.000,     0.000,     0.000,     0.000,   1,1
   17,'1 ',1,   1,   1,   120.859,    32.634,     0.000,     0.000,     0.000,     0.000,   1,1
   18,'1 ',1,   1,   1,   138.255,    41.530,     0.000,     0.000,     0.000,     0.000,   1,1
   19,'1 ',1,   1,   1,   143.288,    36.675,     0.000,     0.000,     0.000,     0.000,   1,1
   20,'1 ',1,   1,   1,   139.709,    38.001,     0.000,     0.000,     0.000,     0.000,   1,1
   21,'1 ',1,   1,   1,   199.211,    51.943,     0.000,     0.000,     0.000,     0.000,   1,1
   22,'1 ',1,   1,   1,   178.288,    50.827,     0.000,     0.000,     0.000,     0.000,   1,1
   23,'1 ',1,   1,   1,   134.318,    43.910,     0.000,     0.000,     0.000,     0.000,   1,1
   24,'1 ',1,   1,   1,   163.833,    56.354,     0.000,     0.000,     0.000,     0.000,   1,1
   25,'1 ',1,   1,   1,    86.932,    27.992,     0.000,     0.000,     0.000,     0.000,   1,1
   26,'1 ',1,   1,   1,   105.210,    29.561,     0.000,     0.000,     0.000,     0.000,   1,1
   27,'1 ',1,   1,   1,   132.773,    42.437,     0.000,     0.000,     0.000,     0.000,   1,1
   28,'1 ',1,   1,   1,   166.574,    53.951,     0.000,     0.000,     0.000,     0.000,   1,1
   29,'1 ',1,   1,   1,   102.459,    33.021,     0.000,     0.000,     0.000,     0.000,   1,1
   30,'1 ',1,   1,   1,     0.000,     0.000,     0.000,     0.000,     0.000,     0.000,   1,1
   31,'1 ',1,   1,   1,     0.000,     0.000,     0.000,     0.000,     0.000,     0.000,   1,1
   32,'1 ',1,   1,   1,     0.000,     0.000,     0.000,     0.000,     0.000,     0.000,   1,1
   33,'1 ',1,   1,   1,   185.966,    45.868,     0.000,     0.000,     0.000,     0.000,   1,1
   34,'1 ',1,   1,   1,   114.380,    35.188,     0.000,     0.000,     0.000,     0.000,   1,1
   35,'1 ',1,   1,   1,     0.000,     0.000,     0.000,     0.000,     0.000,     0.000,   1,1
   36,'1 ',1,   1,   1,     0.000,     0.000,     0.000,     0.000,     0.000,     0.000,   1,1
   37,'1 ',1,   1,   1,     0.000,     0.000,     0.000,     0.000,     0.000,     0.000,   1,1
   38,'1 ',1,   1,   1,     0.000,     0.000,     0.000,     0.000,     0.000,     0.000,   1,1
   39,'1 ',1,   1,   1,    99.530,    31.435,     0.000,     0.000,     0.000,     0.000,   1,1
   40,'1 ',1,   1,   1,   100.073,    29.372,     0.000,     0.000,     0.000,     0.000,   1,1
   41,'1 ',1,   1,   1,   130.186,    39.275,     0.000,     0.000,     0.000,     0.000,   1,1
   42,'1 ',1,   1,   1,   144.636,    44.043,     0.000,     0.000,     0.000,     0.000,   1,1
   43,'1 ',1,   1,   1,   133.629,    41.618,     0.000,     0.000,     0.000,     0.000,   1,1
   44,'1 ',1,   1,   1,   114.553,    38.187,     0.000,     0.000,     0.000,     0.000,   1,1
   45,'1 ',1,   1,   1,   167.518,    54.536,     0.000,     0.000,     0.000,     0.000,   1,1
   46,'1 ',1,   1,   1,   150.199,    45.902,     0.000,     0.000,     0.000,     0.000,   1,1
   47,'1 ',1,   1,   1,   134.347,    38.327,     0.000,     0.000,     0.000,     0.000,   1,1
   48,'1 ',1,   1,   1,   162.417,    46.327,     0.000,     0.000,     0.000,     0.000,   1,1
   49,'1 ',1,   1,   1,   104.153,    33.190,     0.000,     0.000,     0.000,     0.000,   1,1
   50,'1 ',1,   1,   1,   157.972,    45.088,     0.000,     0.000,     0.000,     0.000,   1,1
   51,'1 ',1,   1,   1,   130.976,    45.572,     0.000,     0.000,     0.000,     0.000,   1,1
   52,'1 ',1,   1,   1,   169.474,    55.051,     0.000,     0.000,     0.000,     0.000,   1,1
   53,'1 ',1,   1,   1,   249.855,    77.392,     0.000,     0.000,     0.000,     0.000,   1,1
   54,'1 ',1,   1,   1,   110.804,    39.765,     0.000,     0.000,     0.000,     0.000,   1,1
   55,'1 ',1,   1,   1,   161.135,    48.000,     0.000,     0.000,     0.000,     0.000,   1,1
   56,'1 ',1,   1,   1,   182.634,    53.879,     0.000,     0.000,     0.000,     0.000,   1,1
   57,'1 ',1,   1,   1,    96.256,    32.040,     0.000,     0.000,     0.000,     0.000,   1,1
   58,'1 ',1,   1,   1,   205.598,    63.932,     0.000,     0.000,     0.000,     0.000,   1,1
   59,'1 ',1,   1,   1,   127.127,    40.076,     0.000,     0.000,     0.000,     0.000,   1,1
   60,'1 ',1,   1,   1,   145.289,    46.013,     0.000,     0.000,     0.000,     0.000,   1,1
   61,'1 ',1,   1,   1,   173.417,    50.531,     0.000,     0.000,     0.000,     0.000,   1,1
   62,'1 ',1,   1,   1,   161.964,    55.922,     0.000,     0.000,     0.000,     0.000,   1,1
   63,'1 ',1,   1,   1,   124.459,    46.012,     0.000,     0.000,     0.000,     0.000,   1,1
   64,'1 ',1,   1,   1,   263.143,    80.553,     0.000,     0.000,     0.000,     0.000,   1,1
   65,'1 ',1,   1,   1,   107.809,    40.749,     0.000,     0.000,     0.000,     0.000,   1,1
   66,'1 ',1,   1,   1,   124.566,    45.105,     0.000,     0.000,     0.000,     0.000,   1,1
   67,'1 ',1,   1,   1,   147.965,    43.357,     0.000,     0.000,     0.000,     0.000,   1,1
   68,'1 ',1,   1,   1,   177.423,    59.438,     0.000,     0.000,     0.000,     0.000,   1,1
   69,'1 ',1,   1,   1,    99.424,    38.522,     0.000,     0.000,     0.000,     0.000,   1,1
   70,'1 ',1,   1,   1,   140.186,    47.021,     0.000,     0.000,     0.000,     0.000,   1,1
   71,'1 ',1,   1,   1,   109.022,    39.728,     0.000,     0.000,     0.000,     0.000,   1,1
   72,'1 ',1,   1,   1,    96.338,    35.881,     0.000,     0.000,     0.000,     0.000,   1,1
   73,'1 ',1,   1,   1,   117.993,    37.526,     0.000,     0.000,     0.000,     0.000,   1,1
   74,'1 ',1,   1,   1,   128.999,    39.366,     0.000,     0.000,     0.000,     0.000,   1,1
   75,'1 ',1,   1,   1,   137.395,    41.006,     0.000,     0.000,     0.000,     0.000,   1,1
   76,'1 ',1,   1,   1,   187.260,    48.397,     0.000,     0.000,     0.000,     0.000,   1,1
   77,'1 ',1,   1,   1,   103.220,    29.365,     0.000,     0.000,     0.000,     0.000,   1,1
   78,'1 ',1,   1,   1,   126.849,    37.768,     0.000,     0.000,     0.000,     0.000,   1,1
   79,'1 ',1,   1,   1,   169.248,    45.836,     0.000,     0.000,     0.000,     0.000,   1,1
   80,'1 ',1,   1,   1,   135.666,    36.447,     0.000,     0.000,     0.000,     0.000,   1,1
   81,'1 ',1,   1,   1,   146.157,    34.761,     0.000,     0.000,     0.000,     0.000,   1,1
   82,'1 ',1,   1,   1,   102.366,    29.208,     0.000,     0.000,     0.000,     0.000,   1,1
   83,'1 ',1,   1,   1,   107.445,    30.985,     0.000,     0.000,     0.000,     0.000,   1,1
   84,'1 ',1,   1,   1,    82.593,    26.686,     0.000,     0.000,     0.000,     0.000,   1,1
   85,'1 ',1,   1,   1,    91.311,    26.440,     0.000,     0.000,     0.000,     0.000,   1,1
   86,'1 ',1,   1,   1,   140.156,    34.164,     0.000,     0.000,     0.000,     0.000,   1,1
   87,'1 ',1,   1,   1,   158.513,    40.357,     0.000,     0.000,     0.000,     0.000,   1,1
   88,'1 ',1,   1,   1,   126.526,    42.345,     0.000,     0.000,     0.000,     0.000,   1,1
   89,'1 ',1,   1,   1,    99.918,    32.360,     0.000,     0.000,     0.000,     0.000,   1,1
   90,'1 ',1,   1,   1,   112.256,    37.128,     0.000,     0.000,     0.000,     0.000,   1,1
   91,'1 ',1,   1,   1,   135.130,    43.192,     0.000,     0.000,     0.000,     0.000,   1,1
   92,'1 ',1,   1,   1,   126.991,    33.334,     0.000,     0.000,     0.000,     0.000,   1,1
   93,'1 ',1,   1,   1,   142.845,    42.789,     0.000,     0.000,     0.000,     0.000,   1,1
   94,'1 ',1,   1,   1,   176.441,    53.779,     0.000,     0.000,     0.000,     0.000,   1,1
   95,'1 ',1,   1,   1,   160.261,    46.978,     0.000,     0.000,     0.000,     0.000,   1,1
   96,'1 ',1,   1,   1,   182.881,    52.788,     0.000,     0.000,     0.000,     0.000,   1,1
   97,'1 ',1,   1,   1,   180.612,    36.423,     0.000,     0.000,     0.000,     0.000,   1,1
   98,'1 ',1,   1,   1,   187.786,    47.302,     0.000,     0.000,     0.000,     0.000,   1,1
   99,'1 ',1,   1,   1,   179.499,    49.223,     0.000,     0.000,     0.000,     0.000,   1,1
  100,'1 ',1,   1,   1,   141.513,    41.864,     0.000,     0.000,     0.000,     0.000,   1,1
  101,'1 ',1,   1,   1,   133.502,    39.261,     0.000,     0.000,     0.000,     0.000,   1,1
  102,'1 ',1,   1,   1,    90.967,    36.435,     0.000,     0.000,     0.000,     0.000,   1,1
  103,'1 ',1,   1,   1,   207.397,    59.157,     0.000,     0.000,     0.000,     0.000,   1,1
  104,'1 ',1,   1,   1,   152.402,    41.635,     0.000,     0.000,     0.000,     0.000,   1,1
  105,'1 ',1,   1,   1,   115.793,    34.364,     0.000,     0.000,     0.000,     0.000,   1,1
  106,'1 ',1,   1,   1,   116.053,    35.222,     0.000,     0.000,     0.000,     0.000,   1,1
  107,'1 ',1,   1,   1,   134.315,    42.185,     0.000,     0.000,     0.000,     0.000,   1,1
  108,'1 ',1,   1,   1,   217.658,    58.987,     0.000,     0.000,     0.000,     0.000,   1,1
  109,'1 ',1,   1,   1,   164.000,    49.891,     0.000,     0.000,     0.000,     0.000,   1,1
  110,'1 ',1,   1,   1,    92.505,    34.910,     0.000,     0.000,     0.000,     0.000,   1,1
  111,'1 ',1,   1,   1,   158.773,    50.712,     0.000,     0.000,     0.000,     0.000,   1,1
  112,'1 ',1,   1,   1,   211.688,    54.722,     0.000,     0.000,     0.000,     0.000,   1,1
  113,'1 ',1,   1,   1,    90.527,    30.847,     0.000,     0.000,     0.000,     0.000,   1,1
  114,'1 ',1,   1,   1,    93.954,    32.823,     0.000,     0.000,     0.000,     0.000,   1,1
  115,'1 ',1,   1,   1,   105.146,    34.108,     0.000,     0.000,     0.000,     0.000,   1,1
  116,'1 ',1,   1,   1,   190.933,    48.933,     0.000,     0.000,     0.000,     0.000,   1,1
  117,'1 ',1,   1,   1,   146.688,    46.546,     0.000,     0.000,     0.000,     0.000,   1,1
  118,'1 ',1,   1,   1,    92.642,    29.949,     0.000,     0.000,     0.000,     0.000,   1,1
  119,'1 ',1,   1,   1,   181.739,    46.473,     0.000,     0.000,     0.000,     0.000,   1,1
  120,'1 ',1,   1,   1,   115.602,    39.214,     0.000,     0.000,     0.000,     0.000,   1,1
  121,'1 ',1,   1,   1,   138.473,    43.653,     0.000,     0.000,     0.000,     0.000,   1,1
  122,'1 ',1,   1,   1,   115.485,    38.040,     0.000,     0.000,     0.000,     0.000,   1,1
  123,'1 ',1,   1,   1,   165.909,    42.969,     0.000,     0.000,     0.000,     0.000,   1,1
  124,'1 ',1,   1,   1,   168.583,    41.976,     0.000,     0.000,     0.000,     0.000,   1,1
  125,'1 ',1,   1,   1,   175.596,    52.677,     0.000,     0.000,     0.000,     0.000,   1,1
  126,'1 ',1,   1,   1,   147.494,    38.258,     0.000,     0.000,     0.000,     0.000,   1,1
  127,'1 ',1,   1,   1,   169.216,    45.749,     0.000,     0.000,     0.000,     0.000,   1,1
  128,'1 ',1,   1,   1,   182.846,    48.091,     0.000,     0.000,     0.000,     0.000,   1,1
  129,'1 ',1,   1,   1,   140.817,    41.188,     0.000,     0.000,     0.000,     0.000,   1,1
  130,'1 ',1,   1,   1,   149.530,    45.167,     0.000,     0.000,     0.000,     0.000,   1,1
  131,'1 ',1,   1,   1,   201.821,    55.809,     0.000,     0.000,     0.000,     0.000,   1,1
  132,'1 ',1,   1,   1,   187.614,    41.178,     0.000,     0.000,     0.000,     0.000,   1,1
  133,'1 ',1,   1,   1,   123.598,    39.269,     0.000,     0.000,     0.000,     0.000,   1,1
  134,'1 ',1,   1,   1,   144.826,    41.362,     0.000,     0.000,     0.000,     0.000,   1,1
  135,'1 ',1,   1,   1,   108.616,    35.834,     0.000,     0.000,     0.000,     0.000,   1,1
  136,'1 ',1,   1,   1,   132.702,    41.733,     0.000,     0.000,     0.000,     0.000,   1,1
  137,'1 ',1,   1,   1,   107.611,    34.518,     0.000,     0.000,     0.000,     0.000,   1,1
  138,'1 ',1,   1,   1,   178.708,    48.125,     0.000,     0.000,     0.000,     0.000,   1,1
  139,'1 ',1,   1,   1,   155.208,    45.399,     0.000,     0.000,     0.000,     0.000,   1,1
  140,'1 ',1,   1,   1,   201.874,    51.276,     0.000,     0.000,     0.000,     0.000,   1,1
  141,'1 ',1,   1,   1,   183.823,    52.533,     0.000,     0.000,     0.000,     0.000,   1,1
  142,'1 ',1,   1,   1,   124.429,    43.349,     0.000,     0.000,     0.000,     0.000,   1,1
  143,'1 ',1,   1,   1,   175.156,    48.920,     0.000,     0.000,     0.000,     0.000,   1,1
  144,'1 ',1,   1,   1,   206.212,    59.821,     0.000,     0.000,     0.000,     0.000,   1,1
  145,'1 ',1,   1,   1,   162.399,    53.245,     0.000,     0.000,     0.000,     0.000,   1,1
  146,'1 ',1,   1,   1,   173.387,    52.079,     0.000,     0.000,     0.000,     0.000,   1,1
  147,'1 ',1,   1,   1,   112.898,    34.932,     0.000,     0.000,     0.000,     0.000,   1,1
  148,'1 ',1,   1,   1,   128.821,    37.989,     0.000,     0.000,     0.000,     0.000,   1,1
  149,'1 ',1,   1,   1,   212.082,    53.102,     0.000,     0.000,     0.000,     0.000,   1,1
  150,'1 ',1,   1,   1,   154.414,    46.035,     0.000,     0.000,     0.000,     0.000,   1,1
  151,'1 ',1,   1,   1,   131.995,    43.399,     0.000,     0.000,     0.000,     0.000,   1,1
  152,'1 ',1,   1,   1,   108.394,    30.523,     0.000,     0.000,     0.000,     0.000,   1,1
  153,'1 ',1,   1,   1,   124.331,    41.772,     0.000,     0.000,     0.000,     0.000,   1,1
  154,'1 ',1,   1,   1,   151.551,    47.792,     0.000,     0.000,     0.000,     0.000,   1,1
  155,'1 ',1,   1,   1,   140.290,    47.035,     0.000,     0.000,     0.000,     0.000,   1,1
  156,'1 ',1,   1,   1,   144.066,    47.611,     0.000,     0.000,     0.000,     0.000,   1,1
  157,'1 ',1,   1,   1,   144.043,    43.009,     0.000,     0.000,     0.000,     0.000,   1,1
  158,'1 ',1,   1,   1,   143.206,    37.613,     0.000,     0.000,     0.000,     0.000,   1,1
  159,'1 ',1,   1,   1,   149.714,    35.565,     0.000,     0.000,     0.000,     0.000,   1,1
  160,'1 ',1,   1,   1,   180.095,    63.083,     0.000,     0.000,     0.000,     0.000,   1,1
  161,'1 ',1,   1,   1,    97.543,    33.656,     0.000,     0.000,     0.000,     0.000,   1,1
  162,'1 ',1,   1,   1,   137.516,    43.608,     0.000,     0.000,     0.000,     0.000,   1,1
  163,'1 ',1,   1,   1,   170.174,    54.069,     0.000,     0.000,     0.000,     0.000,   1,1
  164,'1 ',1,   1,   1,   131.059,    48.792,     0.000,     0.000,     0.000,     0.000,   1,1
  165,'1 ',1,   1,   1,   139.959,    35.759,     0.000,     0.000,     0.000,     0.000,   1,1
  166,'1 ',1,   1,   1,   130.687,    39.383,     0.000,     0.000,     0.000,     0.000,   1,1
  167,'1 ',1,   1,   1,   131.220,    35.021,     0.000,     0.000,     0.000,     0.000,   1,1
  168,'1 ',1,   1,   1,    88.079,    32.340,     0.000,     0.000,     0.000,     0.000,   1,1
  169,'1 ',1,   1,   1,   134.576,    39.601,     0.000,     0.000,     0.000,     0.000,   1,1
  170,'1 ',1,   1,   1,   156.266,    47.550,     0.000,     0.000,     0.000,     0.000,   1,1
  171,'1 ',1,   1,   1,   135.867,    49.523,     0.000,     0.000,     0.000,     0.000,   1,1
  172,'1 ',1,   1,   1,   157.625,    46.246,     0.000,     0.000,     0.000,     0.000,   1,1
  173,'1 ',1,   1,   1,   139.612,    47.992,     0.000,     0.000,     0.000,     0.000,   1,1
  174,'1 ',1,   1,   1,   168.190,    54.287,     0.000,     0.000,     0.000,     0.000,   1,1
  175,'1 ',1,   1,   1,   135.713,    39.164,     0.000,     0.000,     0.000,     0.000,   1,1
  176,'1 ',1,   1,   1,   165.083,    49.911,     0.000,     0.000,     0.000,     0.000,   1,1
  177,'1 ',1,   1,   1,   233.625,    77.718,     0.000,     0.000,     0.000,     0.000,   1,1
  178,'1 ',1,   1,   1,   125.162,    39.630,     0.000,     0.000,     0.000,     0.000,   1,1
  179,'1 ',1,   1,   1,    11.679,     3.370,     0.000,     0.000,     0.000,     0.000,   1,1
  180,'1 ',1,   1,   1,    17.345,     5.070,     0.000,     0.000,     0.000,     0.000,   1,1
  181,'1 ',1,   1,   1,     0.000,     0.000,     0.000,     0.000,     0.000,     0.000,   1,1
  182,'1 ',1,   1,   1,     0.000,     0.000,     0.000,     0.000,     0.000,     0.000,   1,1
  183,'1 ',1,   1,   1,     0.000,     0.000,     0.000,     0.000,     0.000,     0.000,   1,1
  184,'1 ',1,   1,   1,     0.000,     0.000,     0.000,     0.000,     0.000,     0.000,   1,1
  185,'1 ',1,   1,   1,     0.000,     0.000,     0.000,     0.000,     0.000,     0.000,   1,1
  186,'1 ',1,   1,   1,     0.000,     0.000,     0.000,     0.000,     0.000,     0.000,   1,1
  187,'1 ',1,   1,   1,     0.000,     0.000,     0.000,     0.000,     0.000,     0.000,   1,1
  188,'1 ',1,   1,   1,     0.000,     0.000,     0.000,     0.000,     0.000,     0.000,   1,1
  189,'1 ',1,   1,   1,     0.000,     0.000,     0.000,     0.000,     0.000,     0.000,   1,1
  190,'1 ',1,   1,   1,     0.000,     0.000,     0.000,     0.000,     0.000,     0.000,   1,1
  191,'1 ',1,   1,   1,     0.000,     0.000,     0.000,     0.000,     0.000,     0.000,   1,1
  192,'1 ',1,   1,   1,     0.000,     0.000,     0.000,     0.000,     0.000,     0.000,   1,1
  193,'1 ',1,   1,   1,     0.000,     0.000,     0.000,     0.000,     0.000,     0.000,   1,1
  194,'1 ',1,   1,   1,     0.000,     0.000,     0.000,     0.000,     0.000,     0.000,   1,1
  195,'1 ',1,   1,   1,     0.000,     0.000,     0.000,     0.000,     0.000,     0.000,   1,1
  196,'1 ',1,   1,   1,     0.000,     0.000,     0.000,     0.000,     0.000,     0.000,   1,1
  197,'1 ',1,   1,   1,     0.000,     0.000,     0.000,     0.000,     0.000,     0.000,   1,1
  198,'1 ',1,   1,   1,     0.000,     0.000,     0.000,     0.000,     0.000,     0.000,   1,1
  199,'1 ',1,   1,   1,     0.000,     0.000,     0.000,     0.000,     0.000,     0.000,   1,1
  200,'1 ',1,   1,   1,     0.000,     0.000,     0.000,     0.000,     0.000,     0.000,   1,1
...
0 / END OF LOAD DATA, BEGIN FIXED SHUNT DATA
    47,' 1', 1,     0.000,    60.000
    57,' 1', 1,     0.000,    10.000
    60,' 1', 1,     0.000,    50.000
    63,' 1', 1,     0.000,    50.000
    72,' 1', 1,     0.000,    70.000
    89,' 1', 1,     0.000,    30.000
   112,' 1', 1,     0.000,    60.000
   113,' 1', 1,     0.000,    60.000
   124,' 1', 1,     0.000,    50.000
   129,' 1', 1,     0.000,    40.000
   131,' 1', 1,     0.000,    50.000
   150,' 1', 1,     0.000,    20.000
   152,' 1', 1,     0.000,    60.000
   155,' 1', 1,     0.000,    10.000
   160,' 1', 1,     0.000,    40.000
   170,' 1', 1,     0.000,    80.000
   171,' 1', 1,     0.000,    10.000
0 / END OF FIXED SHUNT DATA, BEGIN GENERATOR DATA
    1,'1 ',   272.778,   -37.932,   103.000,  -103.000,1.02000,    0,   100.000,   0.00000,   1.00000,   0.00000,   0.00000,1.00000,1,  100.0,   338.000,     3.000,   1,1.0000,   0,1.0000,   0,1.0000,   0,1.0000,1, 1.0000
    3,'1 ',   553.626,    96.247,   392.000,  -209.000,1.02000,    0,   100.000,   0.00000,   1.00000,   0.00000,   0.00000,1.00000,1,  100.0,   686.000,   298.000,   1,1.0000,   0,1.0000,   0,1.0000,   0,1.0000,0, 1.0000
    7,'1 ',   543.942,   228.907,   385.000,  -205.000,1.02000,    0,   100.000,   0.00000,   1.00000,   0.00000,   0.00000,1.00000,1,  100.0,   674.000,   139.000,   1,1.0000,   0,1.0000,   0,1.0000,   0,1.0000,0, 1.0000
    8,'1 ',   493.098,   236.213,   349.000,  -186.000,1.02000,    0,   100.000,   0.00000,   1.00000,   0.00000,   0.00000,1.00000,1,  100.0,   611.000,   189.000,   1,1.0000,   0,1.0000,   0,1.0000,   0,1.0000,0, 1.0000
   10,'1 ',  1832.777,   460.474,  1298.000,  -692.000,1.02000,    0,   100.000,   0.00000,   1.00000,   0.00000,   0.00000,1.00000,1,  100.0,  2271.000,  1406.000,   1,1.0000,   0,1.0000,   0,1.0000,   0,1.0000,0, 1.0000
   24,'1 ',   436.606,   309.000,   309.000,  -165.000,1.02000,    0,   100.000,   0.00000,   1.00000,   0.00000,   0.00000,1.00000,1,  100.0,   541.000,   288.000,   1,1.0000,   0,1.0000,   0,1.0000,   0,1.0000,0, 1.0000
   26,'1 ',   242.111,   112.374,   171.000,   -91.000,1.02000,    0,   100.000,   0.00000,   1.00000,   0.00000,   0.00000,1.00000,1,  100.0,   300.000,   120.000,   1,1.0000,   0,1.0000,   0,1.0000,   0,1.0000,0, 1.0000
   28,'1 ',   477.765,   118.687,   338.000,  -180.000,1.02000,    0,   100.000,   0.00000,   1.00000,   0.00000,   0.00000,1.00000,1,  100.0,   592.000,   216.000,   1,1.0000,   0,1.0000,   0,1.0000,   0,1.0000,0, 1.0000
   30,'1 ',   212.250,    91.005,   150.000,   -80.000,1.02000,    0,   100.000,   0.00000,   1.00000,   0.00000,   0.00000,1.00000,1,  100.0,   263.000,   125.000,   1,1.0000,   0,1.0000,   0,1.0000,   0,1.0000,0, 1.0000
   31,'1 ',   645.628,   159.744,   457.000,  -244.000,1.02000,    0,   100.000,   0.00000,   1.00000,   0.00000,   0.00000,1.00000,1,  100.0,   800.000,   241.000,   1,1.0000,   0,1.0000,   0,1.0000,   0,1.0000,0, 1.0000
   32,'1 ',   551.205,    45.029,   390.000,  -208.000,1.02000,    0,   100.000,   0.00000,   1.00000,   0.00000,   0.00000,1.00000,1,  100.0,   683.000,   163.000,   1,1.0000,   0,1.0000,   0,1.0000,   0,1.0000,0, 1.0000
   33,'1 ',   535.871,   379.000,   379.000,  -202.000,1.02000,    0,   100.000,   0.00000,   1.00000,   0.00000,   0.00000,1.00000,1,  100.0,   664.000,   379.000,   1,1.0000,   0,1.0000,   0,1.0000,   0,1.0000,0, 1.0000
   34,'1 ',   998.302,   191.991,   707.000,  -377.000,1.02000,    0,   100.000,   0.00000,   1.00000,   0.00000,   0.00000,1.00000,1,  100.0,  1237.000,   295.000,   1,1.0000,   0,1.0000,   0,1.0000,   0,1.0000,0, 1.0000
   35,'1 ',  1118.551,   418.777,   792.000,  -422.000,1.02000,    0,   100.000,   0.00000,   1.00000,   0.00000,   0.00000,1.00000,1,  100.0,  1386.000,   924.000,   1,1.0000,   0,1.0000,   0,1.0000,   0,1.0000,0, 1.0000
   36,'1 ',   474.537,   158.522,   336.000,  -179.000,1.02000,    0,   100.000,   0.00000,   1.00000,   0.00000,   0.00000,1.00000,1,  100.0,   588.000,   140.000,   1,1.0000,   0,1.0000,   0,1.0000,   0,1.0000,0, 1.0000
   37,'1 ',   457.589,   137.314,   324.000,  -173.000,1.02000,    0,   100.000,   0.00000,   1.00000,   0.00000,   0.00000,1.00000,1,  100.0,   567.000,   100.000,   1,1.0000,   0,1.0000,   0,1.0000,   0,1.0000,0, 1.0000
   38,'1 ',   703.735,    92.467,   498.000,  -266.000,1.02000,    0,   100.000,   0.00000,   1.00000,   0.00000,   0.00000,1.00000,1,  100.0,   872.000,   208.000,   1,1.0000,   0,1.0000,   0,1.0000,   0,1.0000,0, 1.0000
   49,'1 ',   489.870,   206.883,   347.000,  -185.000,1.02000,    0,   100.000,   0.00000,   1.00000,   0.00000,   0.00000,1.00000,1,  100.0,   607.000,   320.000,   1,1.0000,   0,1.0000,   0,1.0000,   0,1.0000,0, 1.0000
   52,'1 ',  1325.152,   305.301,   938.000,  -500.000,1.02000,    0,   100.000,   0.00000,   1.00000,   0.00000,   0.00000,1.00000,1,  100.0,  1642.000,   162.000,   1,1.0000,   0,1.0000,   0,1.0000,   0,1.0000,0, 1.0000
   54,'1 ',   440.641,    15.823,   312.000,  -166.000,1.02000,    0,   100.000,   0.00000,   1.00000,   0.00000,   0.00000,1.00000,1,  100.0,   546.000,   208.000,   1,1.0000,   0,1.0000,   0,1.0000,   0,1.0000,0, 1.0000
   56,'1 ',   587.522,   416.000,   416.000,  -222.000,1.02000,    0,   100.000,   0.00000,   1.00000,   0.00000,   0.00000,1.00000,1,  100.0,   728.000,   416.000,   1,1.0000,   0,1.0000,   0,1.0000,   0,1.0000,0, 1.0000
   69,'1 ',   419.658,   253.972,   297.000,  -158.000,1.02000,    0,   100.000,   0.00000,   1.00000,   0.00000,   0.00000,1.00000,1,  100.0,   520.000,   149.000,   1,1.0000,   0,1.0000,   0,1.0000,   0,1.0000,0, 1.0000
   72,'1 ',   212.250,   150.000,   150.000,   -80.000,1.02000,    0,   100.000,   0.00000,   1.00000,   0.00000,   0.00000,1.00000,1,  100.0,   263.000,    85.000,   1,1.0000,   0,1.0000,   0,1.0000,   0,1.0000,0, 1.0000
   76,'1 ',   711.805,   504.000,   504.000,  -269.000,1.02000,    0,   100.000,   0.00000,   1.00000,   0.00000,   0.00000,1.00000,1,  100.0,   882.000,   435.000,   1,1.0000,   0,1.0000,   0,1.0000,   0,1.0000,0, 1.0000
   78,'1 ',   232.426,   -44.899,   165.000,   -88.000,1.02000,    0,   100.000,   0.00000,   1.00000,   0.00000,   0.00000,1.00000,1,  100.0,   288.000,   130.000,   1,1.0000,   0,1.0000,   0,1.0000,   0,1.0000,0, 1.0000
   80,'1 ',   466.466,   -50.802,   330.000,  -176.000,1.02000,    0,   100.000,   0.00000,   1.00000,   0.00000,   0.00000,1.00000,1,  100.0,   578.000,   113.000,   1,1.0000,   0,1.0000,   0,1.0000,   0,1.0000,0, 1.0000
   82,'1 ',   252.602,   -19.792,   179.000,   -95.000,1.02000,    0,   100.000,   0.00000,   1.00000,   0.00000,   0.00000,1.00000,1,  100.0,   313.000,   176.000,   1,1.0000,   0,1.0000,   0,1.0000,   0,1.0000,0, 1.0000
   84,'1 ',   716.647,   118.224,   508.000,  -271.000,1.02000,    0,   100.000,   0.00000,   1.00000,   0.00000,   0.00000,1.00000,1,  100.0,   888.000,   169.000,   1,1.0000,   0,1.0000,   0,1.0000,   0,1.0000,0, 1.0000
  103,'1 ',   739.244,   398.075,   523.000,  -279.000,1.02000,    0,   100.000,   0.00000,   1.00000,   0.00000,   0.00000,1.00000,1,  100.0,   916.000,   208.000,   1,1.0000,   0,1.0000,   0,1.0000,   0,1.0000,0, 1.0000
  120,'1 ',   681.945,   483.000,   483.000,  -258.000,1.02000,    0,   100.000,   0.00000,   1.00000,   0.00000,   0.00000,1.00000,1,  100.0,   845.000,   161.000,   1,1.0000,   0,1.0000,   0,1.0000,   0,1.0000,0, 1.0000
  128,'1 ',   305.059,    69.695,   216.000,  -115.000,1.02000,    0,   100.000,   0.00000,   1.00000,   0.00000,   0.00000,1.00000,1,  100.0,   378.000,   180.000,   1,1.0000,   0,1.0000,   0,1.0000,   0,1.0000,0, 1.0000
  130,'1 ',   215.478,   153.000,   153.000,   -81.000,1.02000,    0,   100.000,   0.00000,   1.00000,   0.00000,   0.00000,1.00000,1,  100.0,   267.000,   115.000,   1,1.0000,   0,1.0000,   0,1.0000,   0,1.0000,0, 1.0000
  141,'1 ',  1364.696,   541.477,   967.000,  -515.000,1.02000,    0,   100.000,   0.00000,   1.00000,   0.00000,   0.00000,1.00000,1,  100.0,  1691.000,   877.000,   1,1.0000,   0,1.0000,   0,1.0000,   0,1.0000,0, 1.0000
  143,'1 ',   244.532,   173.000,   173.000,   -92.000,1.02000,    0,   100.000,   0.00000,   1.00000,   0.00000,   0.00000,1.00000,1,  100.0,   303.000,   155.000,   1,1.0000,   0,1.0000,   0,1.0000,   0,1.0000,0, 1.0000
  146,'1 ',   489.870,   347.000,   347.000,  -185.000,1.02000,    0,   100.000,   0.00000,   1.00000,   0.00000,   0.00000,1.00000,1,  100.0,   607.000,   300.000,   1,1.0000,   0,1.0000,   0,1.0000,   0,1.0000,0, 1.0000
  149,'1 ',   221.128,   157.000,   157.000,   -83.000,1.02000,    0,   100.000,   0.00000,   1.00000,   0.00000,   0.00000,1.00000,1,  100.0,   274.000,   186.000,   1,1.0000,   0,1.0000,   0,1.0000,   0,1.0000,0, 1.0000
  157,'1 ',   420.465,   189.337,   298.000,  -159.000,1.02000,    0,   100.000,   0.00000,   1.00000,   0.00000,   0.00000,1.00000,1,  100.0,   521.000,   288.000,   1,1.0000,   0,1.0000,   0,1.0000,   0,1.0000,0, 1.0000
  162,'1 ',   513.274,   176.000,   176.000,   176.000,1.02000,    0,   100.000,   0.00000,   1.00000,   0.00000,   0.00000,1.00000,1,  100.0,   636.000,   230.000,   1,1.0000,   0,1.0000,   0,1.0000,   0,1.0000,0, 1.0000
  165,'1 ',  1052.374,   402.000,   402.000,   402.000,1.02000,    0,   100.000,   0.00000,   1.00000,   0.00000,   0.00000,1.00000,1,  100.0,  1304.000,   782.000,   1,1.0000,   0,1.0000,   0,1.0000,   0,1.0000,0, 1.0000
  166,'1 ',   669.839,   202.000,   202.000,   202.000,1.02000,    0,   100.000,   0.00000,   1.00000,   0.00000,   0.00000,1.00000,1,  100.0,   830.000,   277.000,   1,1.0000,   0,1.0000,   0,1.0000,   0,1.0000,0, 1.0000
  175,'1 ',   505.204,   161.624,   358.000,  -191.000,1.02000,    0,   100.000,   0.00000,   1.00000,   0.00000,   0.00000,1.00000,1,  100.0,   626.000,   209.000,   1,1.0000,   0,1.0000,   0,1.0000,   0,1.0000,0, 1.0000
  176,'1 ',   215.478,   153.000,   153.000,   -81.000,1.02000,    0,   100.000,   0.00000,   1.00000,   0.00000,   0.00000,1.00000,1,  100.0,   267.000,    86.000,   1,1.0000,   0,1.0000,   0,1.0000,   0,1.0000,0, 1.0000
0 / END OF GENERATOR DATA, BEGIN BRANCH DATA
    1,     2,'1 ', 0.00598, 0.12062,1.98515, 414.51, 414.51, 414.51,  0.00000,  0.00000,  0.00000,  0.00000,1,1, 239.2,   1,1.0000,   0,1.0000,   0,1.0000,   0,1.0000
    2,    39,'1 ', 0.00868, 0.06020,0.52937, 530.03, 530.03, 530.03,  0.00000,  0.00000,  0.00000,  0.00000,1,1,  86.8,   1,1.0000,   0,1.0000,   0,1.0000,   0,1.0000
    2,   139,'1 ', 0.00339, 0.02318,0.20974, 530.03, 530.03, 530.03,  0.00000,  0.00000,  0.00000,  0.00000,1,1,  33.9,   1,1.0000,   0,1.0000,   0,1.0000,   0,1.0000
    2,   181,'1 ', 0.00761, 0.05275,0.46393, 530.03, 530.03, 530.03,  0.00000,  0.00000,  0.00000,  0.00000,1,1,  76.1,   1,1.0000,   0,1.0000,   0,1.0000,   0,1.0000
    2,   201,'1 ', 0.00274, 0.01875,0.16965, 530.03, 530.03, 530.03,  0.00000,  0.00000,  0.00000,  0.00000,1,1,  27.4,   1,1.0000,   0,1.0000,   0,1.0000,   0,1.0000
    3,    18,'1 ', 0.00383, 0.15813,0.09685, 316.20, 316.20, 316.20,  0.00000,  0.00000,  0.00000,  0.00000,1,1,  60.3,   1,1.0000,   0,1.0000,   0,1.0000,   0,1.0000
    4,    75,'1 ', 0.01684, 0.03812,0.00951, 107.32, 107.32, 107.32,  0.00000,  0.00000,  0.00000,  0.00000,1,1,   9.2,   1,1.0000,   0,1.0000,   0,1.0000,   0,1.0000
    5,     8,'1 ', 0.00296, 0.03933,0.08406, 578.83, 578.83, 578.83,  0.00000,  0.00000,  0.00000,  0.00000,1,1,  27.9,   1,1.0000,   0,1.0000,   0,1.0000,   0,1.0000
    5,   184,'1 ', 0.04502, 0.11101,0.17939, 178.87, 178.87, 178.87,  0.00000,  0.00000,  0.00000,  0.00000,1,1,  68.6,   1,1.0000,   0,1.0000,   0,1.0000,   0,1.0000
    5,   207,'1 ', 0.00112, 0.01328,0.03027, 541.39, 541.39, 541.39,  0.00000,  0.00000,  0.00000,  0.00000,1,1,   9.7,   1,1.0000,   0,1.0000,   0,1.0000,   0,1.0000
    6,     7,'1 ', 0.06200, 0.14575,0.03365, 107.32, 107.32, 107.32,  0.00000,  0.00000,  0.00000,  0.00000,1,1,  34.0,   1,1.0000,   0,1.0000,   0,1.0000,   0,1.0000
    6,    70,'1 ', 0.03364, 0.07769,0.01859, 107.32, 107.32, 107.32,  0.00000,  0.00000,  0.00000,  0.00000,1,1,  18.5,   1,1.0000,   0,1.0000,   0,1.0000,   0,1.0000
    8,    54,'1 ', 0.00033, 0.00508,0.01216, 665.28, 665.28, 665.28,  0.00000,  0.00000,  0.00000,  0.00000,1,1,   3.8,   1,1.0000,   0,1.0000,   0,1.0000,   0,1.0000
  187,     9,'1 ', 0.00684, 0.04742,0.41703, 530.03, 530.03, 530.03,  0.00000,  0.00000,  0.00000,  0.00000,1,1,  68.4,   1,1.0000,   0,1.0000,   0,1.0000,   0,1.0000
   10,    11,'1 ', 0.00032, 0.00856,0.00495, 566.01, 566.01, 566.01,  0.00000,  0.00000,  0.00000,  0.00000,1,1,   3.2,   1,1.0000,   0,1.0000,   0,1.0000,   0,1.0000
   10,    70,'1 ', 0.00580, 0.06727,0.02063, 324.83, 324.83, 324.83,  0.00000,  0.00000,  0.00000,  0.00000,1,1,  18.1,   1,1.0000,   0,1.0000,   0,1.0000,   0,1.0000
   11,   173,'1 ', 0.01667, 0.12408,0.03486, 237.35, 237.35, 237.35,  0.00000,  0.00000,  0.00000,  0.00000,1,1,  31.9,   1,1.0000,   0,1.0000,   0,1.0000,   0,1.0000
  188,    13,'1 ', 0.00011, 0.00195,0.02003,1045.73,1045.73,1045.73,  0.00000,  0.00000,  0.00000,  0.00000,1,1,   3.0,   1,1.0000,   0,1.0000,   0,1.0000,   0,1.0000
   13,   190,'1 ', 0.00085, 0.01791,0.26779,1060.07,1060.07,1060.07,  0.00000,  0.00000,  0.00000,  0.00000,1,1,  33.9,   1,1.0000,   0,1.0000,   0,1.0000,   0,1.0000
   14,    15,'1 ', 0.03611, 0.08904,0.14388, 178.87, 178.87, 178.87,  0.00000,  0.00000,  0.00000,  0.00000,1,1,  55.0,   1,1.0000,   0,1.0000,   0,1.0000,   0,1.0000
   14,   177,'1 ', 0.01882, 0.06776,0.11459, 229.46, 229.46, 229.46,  0.00000,  0.00000,  0.00000,  0.00000,1,1,  42.5,   1,1.0000,   0,1.0000,   0,1.0000,   0,1.0000
   15,    61,'1 ', 0.00413, 0.02750,0.05200, 353.36, 353.36, 353.36,  0.00000,  0.00000,  0.00000,  0.00000,1,1,  18.4,   1,1.0000,   0,1.0000,   0,1.0000,   0,1.0000
  184,    15,'1 ', 0.00343, 0.04204,0.08894, 541.39, 541.39, 541.39,  0.00000,  0.00000,  0.00000,  0.00000,1,1,  29.7,   1,1.0000,   0,1.0000,   0,1.0000,   0,1.0000
   16,   149,'1 ', 0.01423, 0.04695,0.01231, 137.68, 137.68, 137.68,  0.00000,  0.00000,  0.00000,  0.00000,1,1,  11.6,   1,1.0000,   0,1.0000,   0,1.0000,   0,1.0000
   17,    18,'1 ', 0.05670, 0.19450,0.04709, 137.68, 137.68, 137.68,  0.00000,  0.00000,  0.00000,  0.00000,1,1,  46.1,   1,1.0000,   0,1.0000,   0,1.0000,   0,1.0000
   17,   145,'1 ', 0.04673, 0.10452,0.02669, 107.32, 107.32, 107.32,  0.00000,  0.00000,  0.00000,  0.00000,1,1,  25.6,   1,1.0000,   0,1.0000,   0,1.0000,   0,1.0000
   19,    96,'1 ', 0.05510, 0.12952,0.02990, 107.32, 107.32, 107.32,  0.00000,  0.00000,  0.00000,  0.00000,1,1,  30.2,   1,1.0000,   0,1.0000,   0,1.0000,   0,1.0000
   19,   105,'1 ', 0.00053, 0.01276,0.00724, 522.03, 522.03, 522.03,  0.00000,  0.00000,  0.00000,  0.00000,1,1,   4.7,   1,1.0000,   0,1.0000,   0,1.0000,   0,1.0000
   19,   110,'1 ', 0.00509, 0.02371,0.00609, 173.53, 173.53, 173.53,  0.00000,  0.00000,  0.00000,  0.00000,1,1,   5.8,   1,1.0000,   0,1.0000,   0,1.0000,   0,1.0000
   19,   118,'1 ', 0.00064, 0.01345,0.00755, 474.70, 474.70, 474.70,  0.00000,  0.00000,  0.00000,  0.00000,1,1,   4.9,   1,1.0000,   0,1.0000,   0,1.0000,   0,1.0000
   19,   175,'1 ', 0.05620, 0.25162,0.07017, 173.53, 173.53, 173.53,  0.00000,  0.00000,  0.00000,  0.00000,1,1,  64.5,   1,1.0000,   0,1.0000,   0,1.0000,   0,1.0000
   21,   129,'1 ', 0.00698, 0.03501,0.01005, 187.39, 187.39, 187.39,  0.00000,  0.00000,  0.00000,  0.00000,1,1,   9.1,   1,1.0000,   0,1.0000,   0,1.0000,   0,1.0000
   21,   130,'1 ', 0.00738, 0.06070,0.01884, 261.01, 261.01, 261.01,  0.00000,  0.00000,  0.00000,  0.00000,1,1,  16.4,   1,1.0000,   0,1.0000,   0,1.0000,   0,1.0000
   22,    23,'1 ', 0.01398, 0.03448,0.05572, 178.87, 178.87, 178.87,  0.00000,  0.00000,  0.00000,  0.00000,1,1,  21.3,   1,1.0000,   0,1.0000,   0,1.0000,   0,1.0000
   23,    24,'1 ', 0.04301, 0.10605,0.17137, 178.87, 178.87, 178.87,  0.00000,  0.00000,  0.00000,  0.00000,1,1,  65.6,   1,1.0000,   0,1.0000,   0,1.0000,   0,1.0000
   23,    90,'1 ', 0.00690, 0.02037,0.03648, 206.75, 206.75, 206.75,  0.00000,  0.00000,  0.00000,  0.00000,1,1,  13.2,   1,1.0000,   0,1.0000,   0,1.0000,   0,1.0000
   23,    91,'1 ', 0.01279, 0.05439,0.09557, 262.53, 262.53, 262.53,  0.00000,  0.00000,  0.00000,  0.00000,1,1,  35.1,   1,1.0000,   0,1.0000,   0,1.0000,   0,1.0000
   24,   177,'1 ', 0.00208, 0.01428,0.02528, 353.36, 353.36, 353.36,  0.00000,  0.00000,  0.00000,  0.00000,1,1,   9.2,   1,1.0000,   0,1.0000,   0,1.0000,   0,1.0000
   25,   133,'1 ', 0.00613, 0.04868,0.09258, 395.58, 395.58, 395.58,  0.00000,  0.00000,  0.00000,  0.00000,1,1,  32.6,   1,1.0000,   0,1.0000,   0,1.0000,   0,1.0000
   25,   168,'1 ', 0.01816, 0.04527,0.07160, 178.87, 178.87, 178.87,  0.00000,  0.00000,  0.00000,  0.00000,1,1,  27.7,   1,1.0000,   0,1.0000,   0,1.0000,   0,1.0000
   26,    42,'1 ', 0.00714, 0.04949,0.43522, 530.03, 530.03, 530.03,  0.00000,  0.00000,  0.00000,  0.00000,1,1,  71.4,   1,1.0000,   0,1.0000,   0,1.0000,   0,1.0000
   26,    43,'1 ', 0.00133, 0.00911,0.08245, 530.03, 530.03, 530.03,  0.00000,  0.00000,  0.00000,  0.00000,1,1,  13.3,   1,1.0000,   0,1.0000,   0,1.0000,   0,1.0000
   26,   202,'1 ', 0.01045, 0.07245,0.63716, 530.03, 530.03, 530.03,  0.00000,  0.00000,  0.00000,  0.00000,1,1, 104.5,   1,1.0000,   0,1.0000,   0,1.0000,   0,1.0000
   27,   160,'1 ', 0.02217, 0.05468,0.08835, 178.87, 178.87, 178.87,  0.00000,  0.00000,  0.00000,  0.00000,1,1,  33.8,   1,1.0000,   0,1.0000,   0,1.0000,   0,1.0000
   28,    77,'1 ', 0.06656, 0.15647,0.03612, 107.32, 107.32, 107.32,  0.00000,  0.00000,  0.00000,  0.00000,1,1,  36.5,   1,1.0000,   0,1.0000,   0,1.0000,   0,1.0000
   28,    88,'1 ', 0.00116, 0.01860,0.00608, 418.29, 418.29, 418.29,  0.00000,  0.00000,  0.00000,  0.00000,1,1,   5.1,   1,1.0000,   0,1.0000,   0,1.0000,   0,1.0000
   29,    84,'1 ', 0.00955, 0.09168,0.02681, 283.00, 283.00, 283.00,  0.00000,  0.00000,  0.00000,  0.00000,1,1,  24.0,   1,1.0000,   0,1.0000,   0,1.0000,   0,1.0000
   39,    43,'1 ', 0.00577, 0.04003,0.35199, 530.03, 530.03, 530.03,  0.00000,  0.00000,  0.00000,  0.00000,1,1,  57.7,   1,1.0000,   0,1.0000,   0,1.0000,   0,1.0000
   40,    43,'1 ', 0.00360, 0.02314,0.23770, 530.03, 530.03, 530.03,  0.00000,  0.00000,  0.00000,  0.00000,1,1,  36.0,   1,1.0000,   0,1.0000,   0,1.0000,   0,1.0000
  202,    41,'1 ', 0.00271, 0.01880,0.16536, 530.03, 530.03, 530.03,  0.00000,  0.00000,  0.00000,  0.00000,1,1,  27.1,   1,1.0000,   0,1.0000,   0,1.0000,   0,1.0000
   42,   167,'1 ', 0.00687, 0.04934,0.40438, 530.03, 530.03, 530.03,  0.00000,  0.00000,  0.00000,  0.00000,1,1,  68.7,   1,1.0000,   0,1.0000,   0,1.0000,   0,1.0000
   44,    55,'1 ', 0.00742, 0.02703,0.04470, 229.46, 229.46, 229.46,  0.00000,  0.00000,  0.00000,  0.00000,1,1,  16.8,   1,1.0000,   0,1.0000,   0,1.0000,   0,1.0000
   45,    52,'1 ', 0.00089, 0.00836,0.07659, 652.53, 652.53, 652.53,  0.00000,  0.00000,  0.00000,  0.00000,1,1,  12.3,   1,1.0000,   0,1.0000,   0,1.0000,   0,1.0000
  206,    45,'1 ', 0.00042, 0.00286,0.02611, 530.03, 530.03, 530.03,  0.00000,  0.00000,  0.00000,  0.00000,1,1,   4.2,   1,1.0000,   0,1.0000,   0,1.0000,   0,1.0000
   45,   212,'1 ', 0.00103, 0.00976,0.08940, 652.53, 652.53, 652.53,  0.00000,  0.00000,  0.00000,  0.00000,1,1,  14.3,   1,1.0000,   0,1.0000,   0,1.0000,   0,1.0000
   46,    47,'1 ', 0.01683, 0.10628,0.02894, 212.01, 212.01, 212.01,  0.00000,  0.00000,  0.00000,  0.00000,1,1,  26.9,   1,1.0000,   0,1.0000,   0,1.0000,   0,1.0000
   47,    63,'1 ', 0.03810, 0.08957,0.02068, 107.32, 107.32, 107.32,  0.00000,  0.00000,  0.00000,  0.00000,1,1,  20.9,   1,1.0000,   0,1.0000,   0,1.0000,   0,1.0000
   48,   150,'1 ', 0.00352, 0.02444,0.21489, 530.03, 530.03, 530.03,  0.00000,  0.00000,  0.00000,  0.00000,1,1,  35.2,   1,1.0000,   0,1.0000,   0,1.0000,   0,1.0000
  182,    48,'1 ', 0.00342, 0.02370,0.20841, 530.03, 530.03, 530.03,  0.00000,  0.00000,  0.00000,  0.00000,1,1,  34.2,   1,1.0000,   0,1.0000,   0,1.0000,   0,1.0000
   49,    65,'1 ', 0.00180, 0.03771,0.02118, 474.70, 474.70, 474.70,  0.00000,  0.00000,  0.00000,  0.00000,1,1,  13.8,   1,1.0000,   0,1.0000,   0,1.0000,   0,1.0000
...